Circuit: * Z:\home\bhargava\ddp\SPICE\4inpNANDcasc5.asc

Limiting fall time of source v2 to 5e-007
Model "cmosp": Oxide thickness thinner than recommended for a level 1 MOSFET.
Instance "m40": Length shorter than recommended for a level 1 MOSFET.
Instance "m40": Width narrower than recommended for a level 1 MOSFET.
Instance "m39": Length shorter than recommended for a level 1 MOSFET.
Instance "m39": Width narrower than recommended for a level 1 MOSFET.
Instance "m38": Length shorter than recommended for a level 1 MOSFET.
Instance "m38": Width narrower than recommended for a level 1 MOSFET.
Instance "m37": Length shorter than recommended for a level 1 MOSFET.
Instance "m37": Width narrower than recommended for a level 1 MOSFET.
Instance "m32": Length shorter than recommended for a level 1 MOSFET.
Instance "m32": Width narrower than recommended for a level 1 MOSFET.
Instance "m31": Length shorter than recommended for a level 1 MOSFET.
Instance "m31": Width narrower than recommended for a level 1 MOSFET.
Instance "m30": Length shorter than recommended for a level 1 MOSFET.
Instance "m30": Width narrower than recommended for a level 1 MOSFET.
Instance "m29": Length shorter than recommended for a level 1 MOSFET.
Instance "m29": Width narrower than recommended for a level 1 MOSFET.
Instance "m24": Length shorter than recommended for a level 1 MOSFET.
Instance "m24": Width narrower than recommended for a level 1 MOSFET.
Instance "m23": Length shorter than recommended for a level 1 MOSFET.
Instance "m23": Width narrower than recommended for a level 1 MOSFET.
Instance "m22": Length shorter than recommended for a level 1 MOSFET.
Instance "m22": Width narrower than recommended for a level 1 MOSFET.
Instance "m21": Length shorter than recommended for a level 1 MOSFET.
Instance "m21": Width narrower than recommended for a level 1 MOSFET.
Instance "m16": Length shorter than recommended for a level 1 MOSFET.
Instance "m16": Width narrower than recommended for a level 1 MOSFET.
Instance "m15": Length shorter than recommended for a level 1 MOSFET.
Instance "m15": Width narrower than recommended for a level 1 MOSFET.
Instance "m14": Length shorter than recommended for a level 1 MOSFET.
Instance "m14": Width narrower than recommended for a level 1 MOSFET.
Instance "m13": Length shorter than recommended for a level 1 MOSFET.
Instance "m13": Width narrower than recommended for a level 1 MOSFET.
Instance "m8": Length shorter than recommended for a level 1 MOSFET.
Instance "m8": Width narrower than recommended for a level 1 MOSFET.
Instance "m7": Length shorter than recommended for a level 1 MOSFET.
Instance "m7": Width narrower than recommended for a level 1 MOSFET.
Instance "m6": Length shorter than recommended for a level 1 MOSFET.
Instance "m6": Width narrower than recommended for a level 1 MOSFET.
Instance "m5": Length shorter than recommended for a level 1 MOSFET.
Instance "m5": Width narrower than recommended for a level 1 MOSFET.
Model "cmosn": Oxide thickness thinner than recommended for a level 1 MOSFET.
Instance "m36": Length shorter than recommended for a level 1 MOSFET.
Instance "m36": Width narrower than recommended for a level 1 MOSFET.
Instance "m35": Length shorter than recommended for a level 1 MOSFET.
Instance "m35": Width narrower than recommended for a level 1 MOSFET.
Instance "m34": Length shorter than recommended for a level 1 MOSFET.
Instance "m34": Width narrower than recommended for a level 1 MOSFET.
Instance "m33": Length shorter than recommended for a level 1 MOSFET.
Instance "m33": Width narrower than recommended for a level 1 MOSFET.
Instance "m28": Length shorter than recommended for a level 1 MOSFET.
Instance "m28": Width narrower than recommended for a level 1 MOSFET.
Instance "m27": Length shorter than recommended for a level 1 MOSFET.
Instance "m27": Width narrower than recommended for a level 1 MOSFET.
Instance "m26": Length shorter than recommended for a level 1 MOSFET.
Instance "m26": Width narrower than recommended for a level 1 MOSFET.
Instance "m25": Length shorter than recommended for a level 1 MOSFET.
Instance "m25": Width narrower than recommended for a level 1 MOSFET.
Instance "m20": Length shorter than recommended for a level 1 MOSFET.
Instance "m20": Width narrower than recommended for a level 1 MOSFET.
Instance "m19": Length shorter than recommended for a level 1 MOSFET.
Instance "m19": Width narrower than recommended for a level 1 MOSFET.
Instance "m18": Length shorter than recommended for a level 1 MOSFET.
Instance "m18": Width narrower than recommended for a level 1 MOSFET.
Instance "m17": Length shorter than recommended for a level 1 MOSFET.
Instance "m17": Width narrower than recommended for a level 1 MOSFET.
Instance "m12": Length shorter than recommended for a level 1 MOSFET.
Instance "m12": Width narrower than recommended for a level 1 MOSFET.
Instance "m11": Length shorter than recommended for a level 1 MOSFET.
Instance "m11": Width narrower than recommended for a level 1 MOSFET.
Instance "m10": Length shorter than recommended for a level 1 MOSFET.
Instance "m10": Width narrower than recommended for a level 1 MOSFET.
Instance "m9": Length shorter than recommended for a level 1 MOSFET.
Instance "m9": Width narrower than recommended for a level 1 MOSFET.
Instance "m4": Length shorter than recommended for a level 1 MOSFET.
Instance "m4": Width narrower than recommended for a level 1 MOSFET.
Instance "m3": Length shorter than recommended for a level 1 MOSFET.
Instance "m3": Width narrower than recommended for a level 1 MOSFET.
Instance "m2": Length shorter than recommended for a level 1 MOSFET.
Instance "m2": Width narrower than recommended for a level 1 MOSFET.
Instance "m1": Length shorter than recommended for a level 1 MOSFET.
Instance "m1": Width narrower than recommended for a level 1 MOSFET.
Direct Newton iteration for .op point succeeded.

Date: Thu May 16 17:49:03 2013
Total elapsed time: 0.620 seconds.

tnom = 27
temp = 27
method = modified trap
totiter = 2400
traniter = 2376
tranpoints = 1132
accept = 1102
rejected = 30
matrix size = 30
fillins = 0
solver = Normal
Thread vector: 45.7/25.6[2] 37.5/15.5[2] 6.5/5.5[2] 2.1/3.1[1]  2592/500
Matrix Compiler1: 2.43 KB object code size  3.6/2.8/[2.0]
Matrix Compiler2: 3.66 KB object code size  2.9/2.9/[2.5]


