Circuit: * Z:\home\bhargava\ddp\SPICE\AOI.asc

Model "cmosn": Oxide thickness thinner than recommended for a level 1 MOSFET.
Instance "m6": Length shorter than recommended for a level 1 MOSFET.
Instance "m6": Width narrower than recommended for a level 1 MOSFET.
Instance "m5": Length shorter than recommended for a level 1 MOSFET.
Instance "m5": Width narrower than recommended for a level 1 MOSFET.
Instance "m4": Length shorter than recommended for a level 1 MOSFET.
Instance "m4": Width narrower than recommended for a level 1 MOSFET.
Model "cmosp": Oxide thickness thinner than recommended for a level 1 MOSFET.
Instance "m3": Length shorter than recommended for a level 1 MOSFET.
Instance "m3": Width narrower than recommended for a level 1 MOSFET.
Instance "m2": Length shorter than recommended for a level 1 MOSFET.
Instance "m2": Width narrower than recommended for a level 1 MOSFET.
Instance "m1": Length shorter than recommended for a level 1 MOSFET.
Instance "m1": Width narrower than recommended for a level 1 MOSFET.
Direct Newton iteration for .op point succeeded.

Date: Fri May 17 23:08:06 2013
Total elapsed time: 0.221 seconds.

tnom = 27
temp = 27
method = modified trap
totiter = 2145
traniter = 2134
tranpoints = 1054
accept = 1051
rejected = 3
matrix size = 11
fillins = 0
solver = Normal
Matrix Compiler1:      26 opcodes  1.8/[1.6]/1.7
Matrix Compiler2:      72 opcodes  1.7/[1.8]/2.0


