Circuit: * Z:\home\bhargava\ddp\SPICE\cmnsrc.asc

Limiting fall time of source v2 to 1e-006
Model "cmosn": Oxide thickness thinner than recommended for a level 1 MOSFET.
Instance "m1": Length shorter than recommended for a level 1 MOSFET.
Instance "m1": Width narrower than recommended for a level 1 MOSFET.
Direct Newton iteration for .op point succeeded.

Date: Thu Feb 21 01:45:18 2013
Total elapsed time: 0.280 seconds.

tnom = 27
temp = 27
method = modified trap
totiter = 162
traniter = 157
tranpoints = 55
accept = 43
rejected = 12
matrix size = 7
fillins = 0
solver = Normal
Matrix Compiler1: 250 bytes object code size  1.8/1.5/[1.4]
Matrix Compiler2: 475 bytes object code size  1.6/1.8/[1.5]


