Circuit: * Z:\home\bhargava\ddp\SPICE\cmnsrc.asc

Limiting fall time of source v2 to 1e-006
Model "cmosn": Oxide thickness thinner than recommended for a level 1 MOSFET.
Instance "m1": Length shorter than recommended for a level 1 MOSFET.
Instance "m1": Width narrower than recommended for a level 1 MOSFET.
Direct Newton iteration for .op point succeeded.

Date: Thu Mar 14 14:30:46 2013
Total elapsed time: 0.197 seconds.

tnom = 27
temp = 27
method = modified trap
totiter = 146
traniter = 141
tranpoints = 64
accept = 50
rejected = 14
matrix size = 7
fillins = 0
solver = Alternate
Matrix Compiler1: 300 bytes object code size  2.8/2.5/[2.4]
Matrix Compiler2: 537 bytes object code size  2.4/2.9/[2.3]


