Circuit: * Z:\home\bhargava\ddp\SPICE\cmnsrc.asc

Model "cmosn": Oxide thickness thinner than recommended for a level 1 MOSFET.
Instance "m1": Length shorter than recommended for a level 1 MOSFET.
Instance "m1": Width narrower than recommended for a level 1 MOSFET.
Direct Newton iteration for .op point succeeded.
Heightened Def Con from 1.86553e-009 to 5.86553e-009
Heightened Def Con from 5.00115e-007 to 5.04115e-007

Date: Wed May 15 14:02:16 2013
Total elapsed time: 0.339 seconds.

tnom = 27
temp = 27
method = modified trap
totiter = 7438
traniter = 7433
tranpoints = 2711
accept = 1693
rejected = 1020
matrix size = 7
fillins = 0
solver = Normal
Matrix Compiler1: 250 bytes object code size  1.6/1.8/[1.6]
Matrix Compiler2: 475 bytes object code size  1.6/2.0/[1.5]


