Circuit: * Z:\home\bhargava\ddp\SPICE\cmnsrc.asc

Limiting fall time of source v2 to 1e-006
Model "cmosn": Oxide thickness thinner than recommended for a level 1 MOSFET.
Instance "m1": Length shorter than recommended for a level 1 MOSFET.
Instance "m1": Width narrower than recommended for a level 1 MOSFET.
Direct Newton iteration for .op point succeeded.
Heightened Def Con from 5.00101e-007 to 5.011e-007

Date: Thu Jan 24 12:11:10 2013
Total elapsed time: 0.257 seconds.

tnom = 27
temp = 27
method = modified trap
totiter = 481
traniter = 476
tranpoints = 91
accept = 62
rejected = 30
matrix size = 7
fillins = 0
solver = Normal
Matrix Compiler1: 250 bytes object code size  1.6/1.6/[1.4]
Matrix Compiler2: 475 bytes object code size  1.6/1.8/[1.5]


