Circuit: * Z:\home\bhargava\ddp\SPICE\cmnsrc.asc

Limiting fall time of source v2 to 1e-006
Model "cmosn": Oxide thickness thinner than recommended for a level 1 MOSFET.
Instance "m1": Length shorter than recommended for a level 1 MOSFET.
Instance "m1": Width narrower than recommended for a level 1 MOSFET.
Direct Newton iteration for .op point succeeded.

Date: Wed May 08 16:36:37 2013
Total elapsed time: 0.122 seconds.

tnom = 27
temp = 27
method = modified trap
totiter = 168
traniter = 163
tranpoints = 58
accept = 47
rejected = 11
matrix size = 7
fillins = 0
solver = Normal
Matrix Compiler1: 250 bytes object code size  1.7/1.6/[1.5]
Matrix Compiler2: 475 bytes object code size  1.6/1.7/[1.5]


