Circuit: * Z:\home\bhargava\ddp\SPICE\Draft6.asc

Limiting fall time of source v1 to 1e-005
.OP point found by inspection.
Ignoring empty pin current: Ix(u1:1)
Ignoring empty pin current: Ix(u1:2)
Ignoring empty pin current: Ix(u1:1)
Ignoring empty pin current: Ix(u1:2)

Date: Mon Mar 04 10:24:08 2013
Total elapsed time: 0.055 seconds.

tnom = 27
temp = 27
method = modified trap
totiter = 2134
traniter = 2134
tranpoints = 1068
accept = 1063
rejected = 5
matrix size = 3
fillins = 0
solver = Normal
Matrix Compiler1: 50 bytes object code size  2.0/1.4/[1.3]
Matrix Compiler2: 135 bytes object code size  1.4/1.6/[1.4]


