Circuit: * Z:\home\bhargava\ddp\SPICE\Draft3.asc

Ignoring BSIM parameter XL
Ignoring BSIM parameter XW
Error on line 3 : v2 n002 0 v
	 Unknown parameter "v"
Warning: Pd = 0 is less than W.
Warning: Ps = 0 is less than W.
V2: Missing value, assumed 0V @ DC

Date: Wed Sep 12 15:19:14 2012
Total elapsed time: 0.282 seconds.

tnom = 27
temp = 27
method = trap
totiter = 205
traniter = 0
tranpoints = 0
accept = 0
rejected = 0
matrix size = 4
fillins = 0
solver = Normal
Matrix Compiler1:       7 opcodes  1.3/[1.3]/1.5
Matrix Compiler2: 216 bytes object code size  1.4/1.6/[1.4]


