Circuit: * Z:\home\bhargava\ddp\SPICE\IdVds.asc

Model "cmosp": Oxide thickness thinner than recommended for a level 1 MOSFET.
Instance "m2": Length shorter than recommended for a level 1 MOSFET.
Instance "m2": Width narrower than recommended for a level 1 MOSFET.
Model "cmosn": Oxide thickness thinner than recommended for a level 1 MOSFET.
Instance "m1": Length shorter than recommended for a level 1 MOSFET.
Instance "m1": Width narrower than recommended for a level 1 MOSFET.

Date: Tue Mar 26 17:25:15 2013
Total elapsed time: 0.305 seconds.

tnom = 27
temp = 27
method = trap
totiter = 41
traniter = 0
tranpoints = 0
accept = 0
rejected = 0
matrix size = 8
fillins = 0
solver = Alternate
Matrix Compiler1: 256 bytes object code size
Matrix Compiler2: 532 bytes object code size

