Circuit: * Z:\home\bhargava\ddp\SPICE\inverter.asc

Limiting fall time of source v1 to 1e-006
Model "cmosp": Oxide thickness thinner than recommended for a level 1 MOSFET.
Instance "m2": Length shorter than recommended for a level 1 MOSFET.
Instance "m2": Width narrower than recommended for a level 1 MOSFET.
Model "cmosn": Oxide thickness thinner than recommended for a level 1 MOSFET.
Instance "m1": Length shorter than recommended for a level 1 MOSFET.
Instance "m1": Width narrower than recommended for a level 1 MOSFET.
Direct Newton iteration for .op point succeeded.

Date: Wed Mar 20 22:19:01 2013
Total elapsed time: 0.134 seconds.

tnom = 27
temp = 27
method = modified trap
totiter = 2113
traniter = 2102
tranpoints = 1050
accept = 1046
rejected = 4
matrix size = 5
fillins = 0
solver = Alternate
Matrix Compiler1: 148 bytes object code size  1.8/1.8/[1.8]
Matrix Compiler2: 379 bytes object code size  1.8/1.9/[1.8]


