Circuit: * Z:\home\bhargava\ddp\SPICE\inverter_sat.asc

Limiting fall time of source v1 to 1e-006
Model "cmosp": Oxide thickness thinner than recommended for a level 1 MOSFET.
Instance "m2": Length shorter than recommended for a level 1 MOSFET.
Instance "m2": Width narrower than recommended for a level 1 MOSFET.
Model "cmosn": Oxide thickness thinner than recommended for a level 1 MOSFET.
Instance "m1": Length shorter than recommended for a level 1 MOSFET.
Instance "m1": Width narrower than recommended for a level 1 MOSFET.
Direct Newton iteration for .op point succeeded.

Date: Thu Mar 14 11:39:23 2013
Total elapsed time: 0.483 seconds.

tnom = 27
temp = 27
method = modified trap
totiter = 2124
traniter = 2116
tranpoints = 1059
accept = 1056
rejected = 3
matrix size = 5
fillins = 0
solver = Alternate
Matrix Compiler1: 128 bytes object code size  2.3/2.4/[2.1]
Matrix Compiler2: off  [2.3]/2.6/2.5


