Circuit: * Z:\home\bhargava\ddp\SPICE\NOR.asc

Model "cmosn": Oxide thickness thinner than recommended for a level 1 MOSFET.
Instance "m6": Length shorter than recommended for a level 1 MOSFET.
Instance "m6": Width narrower than recommended for a level 1 MOSFET.
Instance "m5": Length shorter than recommended for a level 1 MOSFET.
Instance "m5": Width narrower than recommended for a level 1 MOSFET.
Instance "m4": Length shorter than recommended for a level 1 MOSFET.
Instance "m4": Width narrower than recommended for a level 1 MOSFET.
Model "cmosp": Oxide thickness thinner than recommended for a level 1 MOSFET.
Instance "m3": Length shorter than recommended for a level 1 MOSFET.
Instance "m3": Width narrower than recommended for a level 1 MOSFET.
Instance "m2": Length shorter than recommended for a level 1 MOSFET.
Instance "m2": Width narrower than recommended for a level 1 MOSFET.
Instance "m1": Length shorter than recommended for a level 1 MOSFET.
Instance "m1": Width narrower than recommended for a level 1 MOSFET.
Direct Newton iteration for .op point succeeded.

Date: Sat May 18 12:47:53 2013
Total elapsed time: 0.350 seconds.

tnom = 27
temp = 27
method = modified trap
totiter = 2139
traniter = 2131
tranpoints = 1052
accept = 1047
rejected = 5
matrix size = 11
fillins = 0
solver = Normal
Matrix Compiler1: 414 bytes object code size  1.9/1.7/[1.6]
Matrix Compiler2: off  [1.5]/2.0/1.8


