Circuit: * Z:\home\bhargava\ddp\SPICE\pmos_test.asc

Model "cmosp": Oxide thickness thinner than recommended for a level 1 MOSFET.
Instance "m1": Length shorter than recommended for a level 1 MOSFET.
Instance "m1": Width narrower than recommended for a level 1 MOSFET.

Date: Sun Jan 20 18:15:29 2013
Total elapsed time: 0.444 seconds.

tnom = 27
temp = 27
method = trap
totiter = 3005
traniter = 0
tranpoints = 0
accept = 0
rejected = 0
matrix size = 4
fillins = 0
solver = Normal
Matrix Compiler1: 82 bytes object code size  1.4/1.5/[1.3]
Matrix Compiler2: 268 bytes object code size  1.5/1.7/[1.4]


