Circuit: * Z:\home\bhargava\ddp\SPICE\singleOMP_cmfb_ideal.asc

Model "cmosp": Oxide thickness thinner than recommended for a level 1 MOSFET.
Instance "m3": Length shorter than recommended for a level 1 MOSFET.
Instance "m3": Width narrower than recommended for a level 1 MOSFET.
Instance "m5": Length shorter than recommended for a level 1 MOSFET.
Instance "m5": Width narrower than recommended for a level 1 MOSFET.
Instance "m4": Length shorter than recommended for a level 1 MOSFET.
Instance "m4": Width narrower than recommended for a level 1 MOSFET.
Model "cmosn": Oxide thickness thinner than recommended for a level 1 MOSFET.
Instance "m6": Length shorter than recommended for a level 1 MOSFET.
Instance "m6": Width narrower than recommended for a level 1 MOSFET.
Instance "m2": Length shorter than recommended for a level 1 MOSFET.
Instance "m2": Width narrower than recommended for a level 1 MOSFET.
Instance "m1": Length shorter than recommended for a level 1 MOSFET.
Instance "m1": Width narrower than recommended for a level 1 MOSFET.
Direct Newton iteration for .op point succeeded.

Date: Sun Mar 31 14:41:46 2013
Total elapsed time: 0.376 seconds.

tnom = 27
temp = 27
method = modified trap
totiter = 3040
traniter = 3019
tranpoints = 1171
accept = 1134
rejected = 37
matrix size = 21
fillins = 15
solver = Alternate
Matrix Compiler1: 2.38 KB object code size  3.2/2.7/[2.3]
Matrix Compiler2: 2.00 KB object code size  2.4/20.1/[2.3]


